65
 i =        0, time =        0.000, E =     -1121.2013273676
  O        10.6007664012        9.4477266610        5.6660104812
  O         6.0070988625        5.4293850079        2.8901350946
  O         3.2390935592        9.8990433961        1.1511086363
  O         4.7918791584        7.1739757025        1.1302053837
  O         6.2958149233        3.9751711006       -0.0482199475
  O         9.7528525260        7.8067036885       -2.0809028418
  O         7.5314500440        8.7436389138        8.3974271856
  O         9.4654134522        6.1189421035        0.7205348798
  O         7.8040964582       -2.2930137705        4.9992285626
  O         7.8861712810       12.9650392822        7.8924891287
  O         3.3560079450        8.2734480723        3.5634376137
  O         5.3695120471       15.2434283812        7.9478389514
  O        -3.0180014799       -0.2554260079       15.1514261538
  O        10.6526652604       13.6774343758        4.4001622134
  O         2.6168715152        6.4225104065       11.7779966124
  O         7.5990573250       10.6531004098       -1.3861983427
  O        17.6376737415       10.2430048390        2.5191110163
  O         1.8240388545       -0.5559710232       -3.0062941742
  O         6.2530133587        1.2565953890       10.2233897768
  O        -0.9449651467       14.0621952135       -5.0452485647
  O        13.5951262277       15.4783594938        6.2700559711
  O         3.9368824556       13.1265940890        0.3580906761
  O        12.8955862543       -2.6161228826        4.1707811941
  O         7.2491390447       11.8743085116        1.0557226728
  O         3.8698293570        3.6694229831        0.3483984519
  O         5.6098396552        7.7467929844        5.0312401436
  O        -0.0682357034       18.2935670331        8.5423878485
  O        13.2780879771       20.4064401525       10.4927563206
  O         7.9713227440       16.0397798058       -3.1130294200
  O         4.1786666460        3.5640453257        4.4519879222
  O        13.0119590374       -0.8780024026        6.3517408921
  O         9.8083910480        7.1410861533        7.0342580783
  O        11.8590293128        3.4481448380        3.0655131625
  O         8.5231756884        6.4114042866        3.6541220840
  O         3.8402620414        5.5299949169        6.9836412581
  O        -1.7389966856        4.8631887725       -1.5171370252
  O         7.6684200955        8.4016332286        1.7956014867
  O        16.4016769589       10.4993035969        5.1620116037
  O         6.6676454496       13.4099640295        4.6058000819
  O        10.1287398367       -2.3556479017        0.4919090987
  O        14.9802557769        5.0761959517        2.5072563643
  O        14.0969569403       13.8976729701        2.6649697973
  O         4.7988585701        8.9183142722       10.6405058913
  O        10.2596231821       -0.6914364765       10.4341505922
  O         0.9205419957        4.2887843922        0.1195422411
  O         7.0037578854        6.1561218083        7.4805303751
  O         1.6804202060        1.6630194399       -1.5506874931
  O         4.3035634453        8.1618895393        7.7833529154
  O        13.2289537682       10.6737804948       -0.3178034642
  O         1.6332633688       18.6176975968        5.5841482676
  O         7.1672376732       14.6327751554        1.7449921438
  O        12.2768044245       11.3548402964        2.3039575691
  O        -0.4395360787       -5.8770613882        3.7407109252
  O         2.9797676673        4.0554272620        9.9899749764
  O         7.0330461258        3.6700993536        5.8773492610
  O         9.6597755644       10.9836722063        7.6739619254
  O         4.3200531729       -0.9427236024        9.4504244240
  O         1.4617085617        8.6476313410       -4.6300238960
  O        15.8355113200       13.8674626906        6.4889973551
  O        11.6980591358        7.7272019366       13.4481403795
  O         9.8833546775        3.2384136124        0.9501734996
  O         6.1123306424       10.8605666701        7.1772234407
  O         7.1119606075        6.5376738315       11.2870548690
  O        10.0762677343        4.3917907298        5.8136950113
  O        -1.1977826996        2.1883810101       -2.1104685522
